
 OpenBabel04140918423D

  5  4  0  0  0  0  0  0  0  0999 V2000
   -2.0035    0.1654   -0.1227 C   0  0  0  0  0
   -0.7024   -0.0632    0.0439 C   0  0  0  0  0
   -2.3757    1.1825   -0.1881 H   0  0  0  0  0
   -0.3303   -1.0804    0.1092 H   0  0  0  0  0
   -2.8730   -0.8749   -0.2118 F   0  0  0  0  0
  1  2  2  0  0  0
  3  1  1  0  0  0
  5  1  1  0  0  0
  4  2  1  0  0  0
M  END
$$$$
