
 OpenBabel04100915553D

  4  3  0  0  0  0  0  0  0  0999 V2000
   -0.5469    0.7761    0.2661 C   0  0  0  0  0
   -1.7416    1.3671    0.6991 O   0  0  0  0  0
    0.4228    1.8047   -0.0938 N   0  0  0  0  0
   -0.7860   -0.0634   -0.8121 F   0  0  0  0  0
  1  2  1  0  0  0
  1  3  1  0  0  0
  1  4  1  0  0  0
M  END
